project/IEEE123Bus/IEEE123_VLN_elem.Txt

NODE-GROUND VOLTAGES BY CIRCUIT ELEMENT

Power Delivery Elements

Bus    (node ref)  Phase    Magnitude, kV (pu)    Angle

ELEMENT = "Vsource.SOURCE"
150     (  1)    1           2.4018 (       1) /_    0.0
150     (  2)    2           2.4018 (       1) /_ -120.0
150     (  3)    3           2.4018 (       1) /_  120.0
------------
150     (  0)    0                0 (       0) /_    0.0
150     (  0)    0                0 (       0) /_    0.0
150     (  0)    0                0 (       0) /_    0.0

ELEMENT = "Transformer.REG1A"
150     (  1)    1           2.4018 (       1) /_    0.0
150     (  2)    2           2.4018 (       1) /_ -120.0
150     (  3)    3           2.4018 (       1) /_  120.0
150     (  0)    0                0 (       0) /_    0.0
------------
150R    (  4)    1           2.4018 (       1) /_    0.0
150R    (  5)    2           2.4018 (       1) /_ -120.0
150R    (  6)    3           2.4018 (       1) /_  120.0
150R    (  0)    0                0 (       0) /_    0.0

ELEMENT = "Line.L115"
149     (  7)    1           2.4018 (       1) /_    0.0
149     (  8)    2           2.4018 (       1) /_ -120.0
149     (  9)    3           2.4018 (       1) /_  120.0
------------
1       ( 10)    1           2.3965 (  0.9978) /_    0.4
1       ( 11)    2           2.3817 (  0.9916) /_ -120.3
1       ( 12)    3           2.3971 (  0.9981) /_  119.7

ELEMENT = "Line.L1"
1       ( 11)    2           2.3817 (  0.9916) /_ -120.3
------------
2       ( 13)    2           2.3811 (  0.9914) /_ -120.3

ELEMENT = "Line.L2"
1       ( 12)    3           2.3971 (  0.9981) /_  119.7
------------
3       ( 14)    3           2.3932 (  0.9964) /_  119.7

ELEMENT = "Line.L3"
1       ( 10)    1           2.3965 (  0.9978) /_    0.4
1       ( 11)    2           2.3817 (  0.9916) /_ -120.3
1       ( 12)    3           2.3971 (  0.9981) /_  119.7
------------
7       ( 15)    1           2.3926 (  0.9962) /_    0.8
7       ( 16)    2           2.3669 (  0.9855) /_ -120.5
7       ( 17)    3           2.3959 (  0.9976) /_  119.6

ELEMENT = "Line.L4"
3       ( 14)    3           2.3932 (  0.9964) /_  119.7
------------
4       ( 18)    3           2.3919 (  0.9959) /_  119.7

ELEMENT = "Line.L5"
3       ( 14)    3           2.3932 (  0.9964) /_  119.7
------------
5       ( 19)    3           2.3901 (  0.9951) /_  119.7

ELEMENT = "Line.L6"
5       ( 19)    3           2.3901 (  0.9951) /_  119.7
------------
6       ( 20)    3           2.3885 (  0.9945) /_  119.7

ELEMENT = "Line.L7"
7       ( 15)    1           2.3926 (  0.9962) /_    0.8
7       ( 16)    2           2.3669 (  0.9855) /_ -120.5
7       ( 17)    3           2.3959 (  0.9976) /_  119.6
------------
8       ( 21)    1           2.3903 (  0.9952) /_    1.0
8       ( 22)    2           2.3568 (  0.9813) /_ -120.7
8       ( 23)    3           2.3952 (  0.9972) /_  119.5

ELEMENT = "Line.L8"
8       ( 22)    2           2.3568 (  0.9813) /_ -120.7
------------
12      ( 24)    2           2.3561 (   0.981) /_ -120.7

ELEMENT = "Line.L9"
8       ( 21)    1           2.3903 (  0.9952) /_    1.0
------------
9       ( 25)    1           2.3898 (   0.995) /_    1.1

ELEMENT = "Line.L10"
8       ( 21)    1           2.3903 (  0.9952) /_    1.0
8       ( 22)    2           2.3568 (  0.9813) /_ -120.7
8       ( 23)    3           2.3952 (  0.9972) /_  119.5
------------
13      ( 26)    1           2.3877 (  0.9941) /_    1.4
13      ( 27)    2           2.3422 (  0.9752) /_ -120.9
13      ( 28)    3           2.3936 (  0.9966) /_  119.3

ELEMENT = "Line.L11"
9R      ( 29)    1           2.3898 (   0.995) /_    1.1
------------
14      ( 30)    1           2.3915 (  0.9957) /_    1.1

ELEMENT = "Line.L12"
13      ( 28)    3           2.3936 (  0.9966) /_  119.3
------------
34      ( 31)    3           2.3912 (  0.9956) /_  119.3

ELEMENT = "Line.L13"
13      ( 26)    1           2.3877 (  0.9941) /_    1.4
13      ( 27)    2           2.3422 (  0.9752) /_ -120.9
13      ( 28)    3           2.3936 (  0.9966) /_  119.3
------------
18      ( 32)    1           2.3809 (  0.9913) /_    1.6
18      ( 33)    2           2.3244 (  0.9678) /_ -121.2
18      ( 34)    3            2.391 (  0.9955) /_  119.2

ELEMENT = "Line.L14"
14      ( 30)    1           2.3915 (  0.9957) /_    1.1
------------
11      ( 35)    1             2.39 (  0.9951) /_    1.1

ELEMENT = "Line.L15"
14      ( 30)    1           2.3915 (  0.9957) /_    1.1
------------
10      ( 36)    1           2.3908 (  0.9954) /_    1.1

ELEMENT = "Line.L16"
15      ( 37)    3           2.3903 (  0.9952) /_  119.3
------------
16      ( 38)    3           2.3879 (  0.9942) /_  119.2

ELEMENT = "Line.L17"
15      ( 37)    3           2.3903 (  0.9952) /_  119.3
------------
17      ( 39)    3           2.3892 (  0.9948) /_  119.2

ELEMENT = "Line.L18"
18      ( 32)    1           2.3809 (  0.9913) /_    1.6
------------
19      ( 40)    1           2.3777 (    0.99) /_    1.6

ELEMENT = "Line.L19"
18      ( 32)    1           2.3809 (  0.9913) /_    1.6
18      ( 33)    2           2.3244 (  0.9678) /_ -121.2
18      ( 34)    3            2.391 (  0.9955) /_  119.2
------------
21      ( 41)    1           2.3833 (  0.9923) /_    1.7
21      ( 42)    2           2.3219 (  0.9668) /_ -121.2
21      ( 43)    3           2.3919 (  0.9959) /_  119.2

ELEMENT = "Line.L20"
19      ( 40)    1           2.3777 (    0.99) /_    1.6
------------
20      ( 44)    1           2.3757 (  0.9891) /_    1.6

ELEMENT = "Line.L21"
21      ( 42)    2           2.3219 (  0.9668) /_ -121.2
------------
22      ( 45)    2           2.3187 (  0.9654) /_ -121.2

ELEMENT = "Line.L22"
21      ( 41)    1           2.3833 (  0.9923) /_    1.7
21      ( 42)    2           2.3219 (  0.9668) /_ -121.2
21      ( 43)    3           2.3919 (  0.9959) /_  119.2
------------
23      ( 46)    1           2.3854 (  0.9932) /_    1.8
23      ( 47)    2           2.3206 (  0.9662) /_ -121.2
23      ( 48)    3           2.3923 (   0.996) /_  119.2

ELEMENT = "Line.L23"
23      ( 48)    3           2.3923 (   0.996) /_  119.2
------------
24      ( 49)    3           2.3888 (  0.9946) /_  119.1

ELEMENT = "Line.L24"
23      ( 46)    1           2.3854 (  0.9932) /_    1.8
23      ( 47)    2           2.3206 (  0.9662) /_ -121.2
23      ( 48)    3           2.3923 (   0.996) /_  119.2
------------
25      ( 50)    1           2.3872 (  0.9939) /_    1.9
25      ( 51)    2           2.3192 (  0.9656) /_ -121.2
25      ( 52)    3           2.3936 (  0.9966) /_  119.2

ELEMENT = "Line.L25"
25R     ( 53)    1           2.3872 (  0.9939) /_    1.9
25R     ( 54)    3           2.3936 (  0.9966) /_  119.2
------------
26      ( 55)    1           2.3883 (  0.9944) /_    1.9
26      ( 56)    3           2.3926 (  0.9962) /_  119.2

ELEMENT = "Line.L26"
25      ( 50)    1           2.3872 (  0.9939) /_    1.9
25      ( 51)    2           2.3192 (  0.9656) /_ -121.2
25      ( 52)    3           2.3936 (  0.9966) /_  119.2
------------
28      ( 57)    1           2.3878 (  0.9942) /_    2.0
28      ( 58)    2           2.3186 (  0.9654) /_ -121.2
28      ( 59)    3           2.3936 (  0.9966) /_  119.2

ELEMENT = "Line.L27"
26      ( 55)    1           2.3883 (  0.9944) /_    1.9
26      ( 56)    3           2.3926 (  0.9962) /_  119.2
------------
27      ( 60)    1           2.3888 (  0.9946) /_    1.9
27      ( 61)    3           2.3926 (  0.9962) /_  119.1

ELEMENT = "Line.L28"
26      ( 56)    3           2.3926 (  0.9962) /_  119.2
------------
31      ( 62)    3           2.3911 (  0.9956) /_  119.1

ELEMENT = "Line.L29"
27      ( 60)    1           2.3888 (  0.9946) /_    1.9
------------
33      ( 63)    1           2.3906 (  0.9953) /_    2.0

ELEMENT = "Line.L30"
28      ( 57)    1           2.3878 (  0.9942) /_    2.0
28      ( 58)    2           2.3186 (  0.9654) /_ -121.2
28      ( 59)    3           2.3936 (  0.9966) /_  119.2
------------
29      ( 64)    1           2.3896 (  0.9949) /_    2.0
29      ( 65)    2           2.3173 (  0.9648) /_ -121.2
29      ( 66)    3           2.3937 (  0.9966) /_  119.1

ELEMENT = "Line.L31"
29      ( 64)    1           2.3896 (  0.9949) /_    2.0
29      ( 65)    2           2.3173 (  0.9648) /_ -121.2
29      ( 66)    3           2.3937 (  0.9966) /_  119.1
------------
30      ( 67)    1           2.3903 (  0.9952) /_    2.0
30      ( 68)    2           2.3172 (  0.9648) /_ -121.2
30      ( 69)    3           2.3926 (  0.9962) /_  119.1

ELEMENT = "Line.L32"
30      ( 67)    1           2.3903 (  0.9952) /_    2.0
30      ( 68)    2           2.3172 (  0.9648) /_ -121.2
30      ( 69)    3           2.3926 (  0.9962) /_  119.1
------------
250     ( 70)    1           2.3903 (  0.9952) /_    2.0
250     ( 71)    2           2.3172 (  0.9648) /_ -121.2
250     ( 72)    3           2.3926 (  0.9962) /_  119.1

ELEMENT = "Line.L33"
31      ( 62)    3           2.3911 (  0.9956) /_  119.1
------------
32      ( 73)    3           2.3902 (  0.9952) /_  119.1

ELEMENT = "Line.L34"
34      ( 31)    3           2.3912 (  0.9956) /_  119.3
------------
15      ( 37)    3           2.3903 (  0.9952) /_  119.3

ELEMENT = "Line.L35"
35      ( 74)    1           2.3763 (  0.9894) /_    1.6
35      ( 75)    2           2.3179 (  0.9651) /_ -121.3
------------
36      ( 76)    1           2.3742 (  0.9885) /_    1.6
36      ( 77)    2           2.3167 (  0.9646) /_ -121.3

ELEMENT = "Line.L36"
35      ( 74)    1           2.3763 (  0.9894) /_    1.6
35      ( 75)    2           2.3179 (  0.9651) /_ -121.3
35      ( 78)    3             2.39 (  0.9951) /_  119.1
------------
40      ( 79)    1           2.3736 (  0.9883) /_    1.7
40      ( 80)    2           2.3146 (  0.9637) /_ -121.3
40      ( 81)    3           2.3887 (  0.9946) /_  119.1

ELEMENT = "Line.L37"
36      ( 76)    1           2.3742 (  0.9885) /_    1.6
------------
37      ( 82)    1           2.3723 (  0.9877) /_    1.6

ELEMENT = "Line.L38"
36      ( 77)    2           2.3167 (  0.9646) /_ -121.3
------------
38      ( 83)    2           2.3151 (  0.9639) /_ -121.3

ELEMENT = "Line.L39"
38      ( 83)    2           2.3151 (  0.9639) /_ -121.3
------------
39      ( 84)    2            2.314 (  0.9635) /_ -121.3

ELEMENT = "Line.L40"
40      ( 81)    3           2.3887 (  0.9946) /_  119.1
------------
41      ( 85)    3           2.3877 (  0.9941) /_  119.1

ELEMENT = "Line.L41"
40      ( 79)    1           2.3736 (  0.9883) /_    1.7
40      ( 80)    2           2.3146 (  0.9637) /_ -121.3
40      ( 81)    3           2.3887 (  0.9946) /_  119.1
------------
42      ( 86)    1           2.3706 (   0.987) /_    1.7
42      ( 87)    2           2.3114 (  0.9624) /_ -121.4
42      ( 88)    3           2.3878 (  0.9942) /_  119.1

ELEMENT = "Line.L42"
42      ( 87)    2           2.3114 (  0.9624) /_ -121.4
------------
43      ( 89)    2           2.3084 (  0.9611) /_ -121.4

ELEMENT = "Line.L43"
42      ( 86)    1           2.3706 (   0.987) /_    1.7
42      ( 87)    2           2.3114 (  0.9624) /_ -121.4
42      ( 88)    3           2.3878 (  0.9942) /_  119.1
------------
44      ( 90)    1           2.3687 (  0.9862) /_    1.7
44      ( 91)    2           2.3093 (  0.9615) /_ -121.4
44      ( 92)    3           2.3869 (  0.9938) /_  119.0

ELEMENT = "Line.L44"
44      ( 90)    1           2.3687 (  0.9862) /_    1.7
------------
45      ( 93)    1           2.3674 (  0.9857) /_    1.7

ELEMENT = "Line.L45"
44      ( 90)    1           2.3687 (  0.9862) /_    1.7
44      ( 91)    2           2.3093 (  0.9615) /_ -121.4
44      ( 92)    3           2.3869 (  0.9938) /_  119.0
------------
47      ( 94)    1            2.367 (  0.9855) /_    1.7
47      ( 95)    2           2.3062 (  0.9602) /_ -121.5
47      ( 96)    3           2.3858 (  0.9933) /_  119.0

ELEMENT = "Line.L46"
45      ( 93)    1           2.3674 (  0.9857) /_    1.7
------------
46      ( 97)    1           2.3664 (  0.9853) /_    1.7

ELEMENT = "Line.L47"
47      ( 94)    1            2.367 (  0.9855) /_    1.7
47      ( 95)    2           2.3062 (  0.9602) /_ -121.5
47      ( 96)    3           2.3858 (  0.9933) /_  119.0
------------
48      ( 98)    1           2.3664 (  0.9853) /_    1.7
48      ( 99)    2           2.3055 (  0.9599) /_ -121.5
48      (100)    3           2.3852 (  0.9931) /_  119.0

ELEMENT = "Line.L48"
47      ( 94)    1            2.367 (  0.9855) /_    1.7
47      ( 95)    2           2.3062 (  0.9602) /_ -121.5
47      ( 96)    3           2.3858 (  0.9933) /_  119.0
------------
49      (101)    1           2.3671 (  0.9856) /_    1.8
49      (102)    2           2.3043 (  0.9594) /_ -121.5
49      (103)    3           2.3864 (  0.9936) /_  119.0

ELEMENT = "Line.L49"
49      (101)    1           2.3671 (  0.9856) /_    1.8
49      (102)    2           2.3043 (  0.9594) /_ -121.5
49      (103)    3           2.3864 (  0.9936) /_  119.0
------------
50      (104)    1           2.3678 (  0.9859) /_    1.8
50      (105)    2            2.304 (  0.9593) /_ -121.5
50      (106)    3            2.387 (  0.9938) /_  119.0

ELEMENT = "Line.L50"
50      (104)    1           2.3678 (  0.9859) /_    1.8
50      (105)    2            2.304 (  0.9593) /_ -121.5
50      (106)    3            2.387 (  0.9938) /_  119.0
------------
51      (107)    1           2.3682 (   0.986) /_    1.9
51      (108)    2           2.3038 (  0.9592) /_ -121.5
51      (109)    3           2.3883 (  0.9944) /_  119.0

ELEMENT = "Line.L51"
51      (107)    1           2.3682 (   0.986) /_    1.9
51      (108)    2           2.3038 (  0.9592) /_ -121.5
51      (109)    3           2.3883 (  0.9944) /_  119.0
------------
151     (110)    1           2.3697 (  0.9866) /_    2.0
151     (111)    2            2.303 (  0.9589) /_ -121.6
151     (112)    3           2.3911 (  0.9956) /_  119.0

ELEMENT = "Line.L52"
52      (113)    1           2.3873 (   0.994) /_    1.7
52      (114)    2           2.3315 (  0.9707) /_ -121.1
52      (115)    3           2.3959 (  0.9976) /_  119.2
------------
53      (116)    1           2.3849 (   0.993) /_    1.8
53      (117)    2           2.3282 (  0.9694) /_ -121.2
53      (118)    3           2.3962 (  0.9977) /_  119.1

ELEMENT = "Line.L53"
53      (116)    1           2.3849 (   0.993) /_    1.8
53      (117)    2           2.3282 (  0.9694) /_ -121.2
53      (118)    3           2.3962 (  0.9977) /_  119.1
------------
54      (119)    1           2.3837 (  0.9925) /_    1.8
54      (120)    2           2.3259 (  0.9684) /_ -121.2
54      (121)    3           2.3964 (  0.9977) /_  119.1

ELEMENT = "Line.L54"
54      (119)    1           2.3837 (  0.9925) /_    1.8
54      (120)    2           2.3259 (  0.9684) /_ -121.2
54      (121)    3           2.3964 (  0.9977) /_  119.1
------------
55      (122)    1           2.3832 (  0.9923) /_    1.8
55      (123)    2           2.3257 (  0.9683) /_ -121.2
55      (124)    3           2.3965 (  0.9978) /_  119.1

ELEMENT = "Line.L55"
54      (119)    1           2.3837 (  0.9925) /_    1.8
54      (120)    2           2.3259 (  0.9684) /_ -121.2
54      (121)    3           2.3964 (  0.9977) /_  119.1
------------
57      (125)    1           2.3814 (  0.9915) /_    1.9
57      (126)    2            2.321 (  0.9664) /_ -121.3
57      (127)    3           2.3958 (  0.9975) /_  119.1

ELEMENT = "Line.L56"
55      (122)    1           2.3832 (  0.9923) /_    1.8
55      (123)    2           2.3257 (  0.9683) /_ -121.2
55      (124)    3           2.3965 (  0.9978) /_  119.1
------------
56      (128)    1           2.3832 (  0.9923) /_    1.9
56      (129)    2           2.3253 (  0.9681) /_ -121.2
56      (130)    3           2.3967 (  0.9979) /_  119.1

ELEMENT = "Line.L57"
57      (126)    2            2.321 (  0.9664) /_ -121.3
------------
58      (131)    2           2.3194 (  0.9657) /_ -121.3

ELEMENT = "Line.L58"
57      (125)    1           2.3814 (  0.9915) /_    1.9
57      (126)    2            2.321 (  0.9664) /_ -121.3
57      (127)    3           2.3958 (  0.9975) /_  119.1
------------
60      (132)    1           2.3765 (  0.9895) /_    1.9
60      (133)    2            2.313 (   0.963) /_ -121.5
60      (134)    3           2.3933 (  0.9965) /_  119.0

ELEMENT = "Line.L59"
58      (131)    2           2.3194 (  0.9657) /_ -121.3
------------
59      (135)    2           2.3186 (  0.9654) /_ -121.3

ELEMENT = "Line.L60"
60      (132)    1           2.3765 (  0.9895) /_    1.9
60      (133)    2            2.313 (   0.963) /_ -121.5
60      (134)    3           2.3933 (  0.9965) /_  119.0
------------
61      (136)    1           2.3774 (  0.9899) /_    1.9
61      (137)    2           2.3136 (  0.9633) /_ -121.4
61      (138)    3           2.3942 (  0.9968) /_  119.1

ELEMENT = "Line.L61"
60      (132)    1           2.3765 (  0.9895) /_    1.9
60      (133)    2            2.313 (   0.963) /_ -121.5
60      (134)    3           2.3933 (  0.9965) /_  119.0
------------
62      (139)    1           2.3753 (   0.989) /_    1.9
62      (140)    2           2.3114 (  0.9624) /_ -121.5
62      (141)    3           2.3883 (  0.9944) /_  119.0

ELEMENT = "Line.L62"
62      (139)    1           2.3753 (   0.989) /_    1.9
62      (140)    2           2.3114 (  0.9624) /_ -121.5
62      (141)    3           2.3883 (  0.9944) /_  119.0
------------
63      (142)    1           2.3743 (  0.9886) /_    1.9
63      (143)    2             2.31 (  0.9618) /_ -121.5
63      (144)    3           2.3858 (  0.9934) /_  119.0

ELEMENT = "Line.L63"
63      (142)    1           2.3743 (  0.9886) /_    1.9
63      (143)    2             2.31 (  0.9618) /_ -121.5
63      (144)    3           2.3858 (  0.9934) /_  119.0
------------
64      (145)    1           2.3745 (  0.9886) /_    2.0
64      (146)    2            2.307 (  0.9605) /_ -121.4
64      (147)    3           2.3806 (  0.9912) /_  119.0

ELEMENT = "Line.L64"
64      (145)    1           2.3745 (  0.9886) /_    2.0
64      (146)    2            2.307 (  0.9605) /_ -121.4
64      (147)    3           2.3806 (  0.9912) /_  119.0
------------
65      (148)    1           2.3739 (  0.9884) /_    2.0
65      (149)    2            2.308 (  0.9609) /_ -121.4
65      (150)    3           2.3734 (  0.9882) /_  119.0

ELEMENT = "Line.L65"
65      (148)    1           2.3739 (  0.9884) /_    2.0
65      (149)    2            2.308 (  0.9609) /_ -121.4
65      (150)    3           2.3734 (  0.9882) /_  119.0
------------
66      (151)    1           2.3744 (  0.9886) /_    2.0
66      (152)    2           2.3086 (  0.9612) /_ -121.3
66      (153)    3           2.3697 (  0.9866) /_  118.9

ELEMENT = "Line.L66"
67      (154)    1           2.3754 (   0.989) /_    1.9
------------
68      (155)    1           2.3716 (  0.9874) /_    1.9

ELEMENT = "Line.L67"
67      (154)    1           2.3754 (   0.989) /_    1.9
67      (156)    2           2.3104 (   0.962) /_ -121.6
67      (157)    3           2.3943 (  0.9969) /_  119.0
------------
72      (158)    1           2.3783 (  0.9902) /_    1.9
72      (159)    2           2.3098 (  0.9617) /_ -121.6
72      (160)    3           2.3956 (  0.9974) /_  119.0

ELEMENT = "Line.L68"
67      (154)    1           2.3754 (   0.989) /_    1.9
67      (156)    2           2.3104 (   0.962) /_ -121.6
67      (157)    3           2.3943 (  0.9969) /_  119.0
------------
97      (161)    1           2.3744 (  0.9886) /_    2.0
97      (162)    2           2.3082 (   0.961) /_ -121.6
97      (163)    3           2.3946 (   0.997) /_  119.0

ELEMENT = "Line.L69"
68      (155)    1           2.3716 (  0.9874) /_    1.9
------------
69      (164)    1           2.3672 (  0.9856) /_    1.8

ELEMENT = "Line.L70"
69      (164)    1           2.3672 (  0.9856) /_    1.8
------------
70      (165)    1            2.364 (  0.9843) /_    1.8

ELEMENT = "Line.L71"
70      (165)    1            2.364 (  0.9843) /_    1.8
------------
71      (166)    1           2.3623 (  0.9835) /_    1.8

ELEMENT = "Line.L72"
72      (160)    3           2.3956 (  0.9974) /_  119.0
------------
73      (167)    3           2.3904 (  0.9953) /_  119.0

ELEMENT = "Line.L73"
72      (158)    1           2.3783 (  0.9902) /_    1.9
72      (159)    2           2.3098 (  0.9617) /_ -121.6
72      (160)    3           2.3956 (  0.9974) /_  119.0
------------
76      (168)    1           2.3794 (  0.9907) /_    1.8
76      (169)    2           2.3096 (  0.9616) /_ -121.7
76      (170)    3           2.3984 (  0.9986) /_  119.0

ELEMENT = "Line.L74"
73      (167)    3           2.3904 (  0.9953) /_  119.0
------------
74      (171)    3           2.3859 (  0.9934) /_  118.9

ELEMENT = "Line.L75"
74      (171)    3           2.3859 (  0.9934) /_  118.9
------------
75      (172)    3           2.3834 (  0.9923) /_  118.9

ELEMENT = "Line.L76"
76      (168)    1           2.3794 (  0.9907) /_    1.8
76      (169)    2           2.3096 (  0.9616) /_ -121.7
76      (170)    3           2.3984 (  0.9986) /_  119.0
------------
77      (173)    1            2.383 (  0.9922) /_    1.8
77      (174)    2           2.3129 (   0.963) /_ -121.7
77      (175)    3           2.4019 (       1) /_  119.0

ELEMENT = "Line.L77"
76      (168)    1           2.3794 (  0.9907) /_    1.8
76      (169)    2           2.3096 (  0.9616) /_ -121.7
76      (170)    3           2.3984 (  0.9986) /_  119.0
------------
86      (176)    1           2.3806 (  0.9912) /_    1.9
86      (177)    2           2.3078 (  0.9609) /_ -121.9
86      (178)    3           2.4048 (   1.001) /_  119.2

ELEMENT = "Line.L78"
77      (173)    1            2.383 (  0.9922) /_    1.8
77      (174)    2           2.3129 (   0.963) /_ -121.7
77      (175)    3           2.4019 (       1) /_  119.0
------------
78      (179)    1           2.3839 (  0.9925) /_    1.8
78      (180)    2            2.314 (  0.9635) /_ -121.7
78      (181)    3           2.4026 (       1) /_  119.0

ELEMENT = "Line.L79"
78      (179)    1           2.3839 (  0.9925) /_    1.8
78      (180)    2            2.314 (  0.9635) /_ -121.7
78      (181)    3           2.4026 (       1) /_  119.0
------------
79      (182)    1           2.3832 (  0.9922) /_    1.8
79      (183)    2           2.3143 (  0.9636) /_ -121.7
79      (184)    3           2.4025 (       1) /_  119.0

ELEMENT = "Line.L80"
78      (179)    1           2.3839 (  0.9925) /_    1.8
78      (180)    2            2.314 (  0.9635) /_ -121.7
78      (181)    3           2.4026 (       1) /_  119.0
------------
80      (185)    1           2.3891 (  0.9947) /_    1.8
80      (186)    2           2.3178 (   0.965) /_ -121.8
80      (187)    3           2.4052 (   1.001) /_  118.9

ELEMENT = "Line.L81"
80      (185)    1           2.3891 (  0.9947) /_    1.8
80      (186)    2           2.3178 (   0.965) /_ -121.8
80      (187)    3           2.4052 (   1.001) /_  118.9
------------
81      (188)    1           2.3911 (  0.9956) /_    1.8
81      (189)    2           2.3197 (  0.9658) /_ -121.8
81      (190)    3           2.4059 (   1.002) /_  118.8

ELEMENT = "Line.L82"
81      (188)    1           2.3911 (  0.9956) /_    1.8
81      (189)    2           2.3197 (  0.9658) /_ -121.8
81      (190)    3           2.4059 (   1.002) /_  118.8
------------
82      (191)    1           2.3933 (  0.9965) /_    1.8
82      (192)    2           2.3227 (  0.9671) /_ -121.8
82      (193)    3           2.4081 (   1.003) /_  118.8

ELEMENT = "Line.L83"
81      (190)    3           2.4059 (   1.002) /_  118.8
------------
84      (194)    3           2.3995 (  0.9991) /_  118.8

ELEMENT = "Line.L84"
82      (191)    1           2.3933 (  0.9965) /_    1.8
82      (192)    2           2.3227 (  0.9671) /_ -121.8
82      (193)    3           2.4081 (   1.003) /_  118.8
------------
83      (195)    1           2.3961 (  0.9976) /_    1.7
83      (196)    2            2.325 (   0.968) /_ -121.8
83      (197)    3           2.4102 (   1.003) /_  118.8

ELEMENT = "Line.L85"
84      (194)    3           2.3995 (  0.9991) /_  118.8
------------
85      (198)    3           2.3965 (  0.9978) /_  118.8

ELEMENT = "Line.L86"
86      (176)    1           2.3806 (  0.9912) /_    1.9
86      (177)    2           2.3078 (  0.9609) /_ -121.9
86      (178)    3           2.4048 (   1.001) /_  119.2
------------
87      (199)    1           2.3811 (  0.9914) /_    1.9
87      (200)    2           2.3071 (  0.9606) /_ -121.9
87      (201)    3           2.4083 (   1.003) /_  119.2

ELEMENT = "Line.L87"
87      (199)    1           2.3811 (  0.9914) /_    1.9
------------
88      (202)    1           2.3809 (  0.9913) /_    1.8

ELEMENT = "Line.L88"
87      (199)    1           2.3811 (  0.9914) /_    1.9
87      (200)    2           2.3071 (  0.9606) /_ -121.9
87      (201)    3           2.4083 (   1.003) /_  119.2
------------
89      (203)    1           2.3811 (  0.9914) /_    1.9
89      (204)    2           2.3072 (  0.9606) /_ -121.9
89      (205)    3           2.4106 (   1.004) /_  119.3

ELEMENT = "Line.L89"
89      (204)    2           2.3072 (  0.9606) /_ -121.9
------------
90      (206)    2           2.3069 (  0.9605) /_ -122.0

ELEMENT = "Line.L90"
89      (203)    1           2.3811 (  0.9914) /_    1.9
89      (204)    2           2.3072 (  0.9606) /_ -121.9
89      (205)    3           2.4106 (   1.004) /_  119.3
------------
91      (207)    1           2.3815 (  0.9916) /_    1.9
91      (208)    2           2.3071 (  0.9606) /_ -121.9
91      (209)    3           2.4122 (   1.004) /_  119.3

ELEMENT = "Line.L91"
91      (209)    3           2.4122 (   1.004) /_  119.3
------------
92      (210)    3           2.4155 (   1.006) /_  119.4

ELEMENT = "Line.L92"
91      (207)    1           2.3815 (  0.9916) /_    1.9
91      (208)    2           2.3071 (  0.9606) /_ -121.9
91      (209)    3           2.4122 (   1.004) /_  119.3
------------
93      (211)    1           2.3824 (  0.9919) /_    1.9
93      (212)    2           2.3064 (  0.9603) /_ -122.0
93      (213)    3           2.4121 (   1.004) /_  119.3

ELEMENT = "Line.L93"
93      (211)    1           2.3824 (  0.9919) /_    1.9
------------
94      (214)    1           2.3837 (  0.9925) /_    1.8

ELEMENT = "Line.L94"
93      (211)    1           2.3824 (  0.9919) /_    1.9
93      (212)    2           2.3064 (  0.9603) /_ -122.0
93      (213)    3           2.4121 (   1.004) /_  119.3
------------
95      (215)    1           2.3824 (  0.9919) /_    1.9
95      (216)    2           2.3054 (  0.9599) /_ -122.0
95      (217)    3           2.4126 (   1.004) /_  119.3

ELEMENT = "Line.L95"
95      (216)    2           2.3054 (  0.9599) /_ -122.0
------------
96      (218)    2           2.3048 (  0.9596) /_ -122.0

ELEMENT = "Line.L96"
97      (161)    1           2.3744 (  0.9886) /_    2.0
97      (162)    2           2.3082 (   0.961) /_ -121.6
97      (163)    3           2.3946 (   0.997) /_  119.0
------------
98      (219)    1           2.3739 (  0.9884) /_    2.0
98      (220)    2           2.3075 (  0.9608) /_ -121.6
98      (221)    3           2.3942 (  0.9968) /_  119.0

ELEMENT = "Line.L97"
98      (219)    1           2.3739 (  0.9884) /_    2.0
98      (220)    2           2.3075 (  0.9608) /_ -121.6
98      (221)    3           2.3942 (  0.9968) /_  119.0
------------
99      (222)    1           2.3746 (  0.9887) /_    2.0
99      (223)    2           2.3054 (  0.9599) /_ -121.6
99      (224)    3           2.3935 (  0.9965) /_  119.0

ELEMENT = "Line.L98"
99      (222)    1           2.3746 (  0.9887) /_    2.0
99      (223)    2           2.3054 (  0.9599) /_ -121.6
99      (224)    3           2.3935 (  0.9965) /_  119.0
------------
100     (225)    1           2.3751 (  0.9889) /_    2.0
100     (226)    2           2.3053 (  0.9598) /_ -121.6
100     (227)    3           2.3925 (  0.9962) /_  119.0

ELEMENT = "Line.L99"
100     (225)    1           2.3751 (  0.9889) /_    2.0
100     (226)    2           2.3053 (  0.9598) /_ -121.6
100     (227)    3           2.3925 (  0.9962) /_  119.0
------------
450     (228)    1           2.3751 (  0.9889) /_    2.0
450     (229)    2           2.3053 (  0.9598) /_ -121.6
450     (230)    3           2.3925 (  0.9962) /_  119.0

ELEMENT = "Line.L118"
197     (231)    1           2.3744 (  0.9886) /_    2.0
197     (232)    2           2.3082 (   0.961) /_ -121.6
197     (233)    3           2.3946 (   0.997) /_  119.0
------------
101     (234)    1           2.3739 (  0.9884) /_    2.1
101     (235)    2           2.3065 (  0.9603) /_ -121.6
101     (236)    3           2.3953 (  0.9973) /_  119.1

ELEMENT = "Line.L100"
101     (236)    3           2.3953 (  0.9973) /_  119.1
------------
102     (237)    3           2.3949 (  0.9971) /_  119.1

ELEMENT = "Line.L101"
101     (234)    1           2.3739 (  0.9884) /_    2.1
101     (235)    2           2.3065 (  0.9603) /_ -121.6
101     (236)    3           2.3953 (  0.9973) /_  119.1
------------
105     (238)    1           2.3733 (  0.9881) /_    2.1
105     (239)    2           2.3034 (   0.959) /_ -121.7
105     (240)    3           2.3966 (  0.9979) /_  119.0

ELEMENT = "Line.L102"
102     (237)    3           2.3949 (  0.9971) /_  119.1
------------
103     (241)    3           2.3952 (  0.9973) /_  119.2

ELEMENT = "Line.L103"
103     (241)    3           2.3952 (  0.9973) /_  119.2
------------
104     (242)    3           2.4003 (  0.9994) /_  119.4

ELEMENT = "Line.L104"
105     (239)    2           2.3034 (   0.959) /_ -121.7
------------
106     (243)    2           2.3004 (  0.9578) /_ -121.7

ELEMENT = "Line.L105"
105     (238)    1           2.3733 (  0.9881) /_    2.1
105     (239)    2           2.3034 (   0.959) /_ -121.7
105     (240)    3           2.3966 (  0.9979) /_  119.0
------------
108     (244)    1           2.3726 (  0.9879) /_    2.2
108     (245)    2           2.3019 (  0.9584) /_ -121.7
108     (246)    3           2.3969 (   0.998) /_  119.0

ELEMENT = "Line.L106"
106     (243)    2           2.3004 (  0.9578) /_ -121.7
------------
107     (247)    2           2.2966 (  0.9562) /_ -121.7

ELEMENT = "Line.L107"
108     (244)    1           2.3726 (  0.9879) /_    2.2
------------
109     (248)    1           2.3785 (  0.9903) /_    2.5

ELEMENT = "Line.L108"
108     (244)    1           2.3726 (  0.9879) /_    2.2
108     (245)    2           2.3019 (  0.9584) /_ -121.7
108     (246)    3           2.3969 (   0.998) /_  119.0
------------
300     (249)    1           2.3697 (  0.9866) /_    2.0
300     (250)    2            2.303 (  0.9589) /_ -121.6
300     (251)    3           2.3911 (  0.9956) /_  119.0

ELEMENT = "Line.L109"
109     (248)    1           2.3785 (  0.9903) /_    2.5
------------
110     (252)    1           2.3843 (  0.9927) /_    2.8

ELEMENT = "Line.L110"
110     (252)    1           2.3843 (  0.9927) /_    2.8
------------
111     (253)    1           2.3825 (   0.992) /_    2.7

ELEMENT = "Line.L111"
110     (252)    1           2.3843 (  0.9927) /_    2.8
------------
112     (254)    1           2.3827 (  0.9921) /_    2.7

ELEMENT = "Line.L112"
112     (254)    1           2.3827 (  0.9921) /_    2.7
------------
113     (255)    1           2.3778 (    0.99) /_    2.7

ELEMENT = "Line.L113"
113     (255)    1           2.3778 (    0.99) /_    2.7
------------
114     (256)    1           2.3767 (  0.9896) /_    2.7

ELEMENT = "Line.L114"
135     (257)    1           2.3809 (  0.9913) /_    1.6
135     (258)    2           2.3244 (  0.9678) /_ -121.2
135     (259)    3            2.391 (  0.9955) /_  119.2
------------
35      ( 74)    1           2.3763 (  0.9894) /_    1.6
35      ( 75)    2           2.3179 (  0.9651) /_ -121.3
35      ( 78)    3             2.39 (  0.9951) /_  119.1

ELEMENT = "Line.L116"
152     (260)    1           2.3877 (  0.9941) /_    1.4
152     (261)    2           2.3422 (  0.9752) /_ -120.9
152     (262)    3           2.3936 (  0.9966) /_  119.3
------------
52      (113)    1           2.3873 (   0.994) /_    1.7
52      (114)    2           2.3315 (  0.9707) /_ -121.1
52      (115)    3           2.3959 (  0.9976) /_  119.2

ELEMENT = "Line.L117"
160R    (263)    1           2.3765 (  0.9895) /_    1.9
160R    (264)    2            2.313 (   0.963) /_ -121.5
160R    (265)    3           2.3933 (  0.9965) /_  119.0
------------
67      (154)    1           2.3754 (   0.989) /_    1.9
67      (156)    2           2.3104 (   0.962) /_ -121.6
67      (157)    3           2.3943 (  0.9969) /_  119.0

ELEMENT = "Line.SW1"
150R    (  4)    1           2.4018 (       1) /_    0.0
150R    (  5)    2           2.4018 (       1) /_ -120.0
150R    (  6)    3           2.4018 (       1) /_  120.0
------------
149     (  7)    1           2.4018 (       1) /_    0.0
149     (  8)    2           2.4018 (       1) /_ -120.0
149     (  9)    3           2.4018 (       1) /_  120.0

ELEMENT = "Line.SW2"
13      ( 26)    1           2.3877 (  0.9941) /_    1.4
13      ( 27)    2           2.3422 (  0.9752) /_ -120.9
13      ( 28)    3           2.3936 (  0.9966) /_  119.3
------------
152     (260)    1           2.3877 (  0.9941) /_    1.4
152     (261)    2           2.3422 (  0.9752) /_ -120.9
152     (262)    3           2.3936 (  0.9966) /_  119.3

ELEMENT = "Line.SW3"
18      ( 32)    1           2.3809 (  0.9913) /_    1.6
18      ( 33)    2           2.3244 (  0.9678) /_ -121.2
18      ( 34)    3            2.391 (  0.9955) /_  119.2
------------
135     (257)    1           2.3809 (  0.9913) /_    1.6
135     (258)    2           2.3244 (  0.9678) /_ -121.2
135     (259)    3            2.391 (  0.9955) /_  119.2

ELEMENT = "Line.SW4"
60      (132)    1           2.3765 (  0.9895) /_    1.9
60      (133)    2            2.313 (   0.963) /_ -121.5
60      (134)    3           2.3933 (  0.9965) /_  119.0
------------
160     (266)    1           2.3765 (  0.9895) /_    1.9
160     (267)    2            2.313 (   0.963) /_ -121.5
160     (268)    3           2.3933 (  0.9965) /_  119.0

ELEMENT = "Line.SW5"
97      (161)    1           2.3744 (  0.9886) /_    2.0
97      (162)    2           2.3082 (   0.961) /_ -121.6
97      (163)    3           2.3946 (   0.997) /_  119.0
------------
197     (231)    1           2.3744 (  0.9886) /_    2.0
197     (232)    2           2.3082 (   0.961) /_ -121.6
197     (233)    3           2.3946 (   0.997) /_  119.0

ELEMENT = "Line.SW6"
61      (136)    1           2.3774 (  0.9899) /_    1.9
61      (137)    2           2.3136 (  0.9633) /_ -121.4
61      (138)    3           2.3942 (  0.9968) /_  119.1
------------
61S     (269)    1           2.3774 (  0.9899) /_    1.9
61S     (270)    2           2.3136 (  0.9633) /_ -121.4
61S     (271)    3           2.3942 (  0.9968) /_  119.1

ELEMENT = "Line.SW7"
151     (110)    1           2.3697 (  0.9866) /_    2.0
151     (111)    2            2.303 (  0.9589) /_ -121.6
151     (112)    3           2.3911 (  0.9956) /_  119.0
------------
300     (249)    1           2.3697 (  0.9866) /_    2.0
300     (250)    2            2.303 (  0.9589) /_ -121.6
300     (251)    3           2.3911 (  0.9956) /_  119.0

ELEMENT = "Line.SW8"
54      (119)    1           2.3837 (  0.9925) /_    1.8
------------
94      (214)    1           2.3837 (  0.9925) /_    1.8

ELEMENT = "Line.SW9"
95      (215)    1           2.3824 (  0.9919) /_    1.9
95      (216)    2           2.3054 (  0.9599) /_ -122.0
95      (217)    3           2.4126 (   1.004) /_  119.3
------------
195     (272)    1           2.3824 (  0.9919) /_    1.9
195     (273)    2           2.3054 (  0.9599) /_ -122.0
195     (274)    3           2.4126 (   1.004) /_  119.3

ELEMENT = "Line.SW10"
250     ( 70)    1           2.3903 (  0.9952) /_    2.0
250     ( 71)    2           2.3172 (  0.9648) /_ -121.2
250     ( 72)    3           2.3926 (  0.9962) /_  119.1
------------
251     (275)    1           2.3903 (  0.9952) /_    2.0
251     (276)    2           2.3172 (  0.9648) /_ -121.2
251     (277)    3           2.3926 (  0.9962) /_  119.1

ELEMENT = "Line.SW11"
450     (228)    1           2.3751 (  0.9889) /_    2.0
450     (229)    2           2.3053 (  0.9598) /_ -121.6
450     (230)    3           2.3925 (  0.9962) /_  119.0
------------
451     (278)    1           2.3751 (  0.9889) /_    2.0
451     (279)    2           2.3053 (  0.9598) /_ -121.6
451     (280)    3           2.3925 (  0.9962) /_  119.0

ELEMENT = "Line.SW12"
300     (249)    1           2.3697 (  0.9866) /_    2.0
300     (250)    2            2.303 (  0.9589) /_ -121.6
300     (251)    3           2.3911 (  0.9956) /_  119.0
------------
350     (281)    1           2.3697 (  0.9866) /_    2.0
350     (282)    2            2.303 (  0.9589) /_ -121.6
350     (283)    3           2.3911 (  0.9956) /_  119.0

ELEMENT = "Transformer.XFM1"
61S     (269)    1           2.3774 (  0.9899) /_    1.9
61S     (270)    2           2.3136 (  0.9633) /_ -121.4
61S     (271)    3           2.3942 (  0.9968) /_  119.1
61S     (  0)    0                0 (       0) /_    0.0
------------
610     (284)    1          0.27392 (  0.9884) /_    0.3
610     (285)    2          0.27364 (  0.9874) /_ -120.7
610     (286)    3           0.2697 (  0.9732) /_  119.9
610     (  0)    0                0 (       0) /_    0.0

ELEMENT = "Capacitor.C83"
83      (195)    1           2.3961 (  0.9976) /_    1.7
83      (196)    2            2.325 (   0.968) /_ -121.8
83      (197)    3           2.4102 (   1.003) /_  118.8
------------
C83_1   (  0)    0                0 (       0) /_    0.0
C83_1   (  0)    0                0 (       0) /_    0.0
C83_1   (  0)    0                0 (       0) /_    0.0

ELEMENT = "Capacitor.C88A"
88      (202)    1           2.3809 (  0.9913) /_    1.8
------------
C88A_1  (  0)    0                0 (       0) /_    0.0

ELEMENT = "Capacitor.C90B"
90      (206)    2           2.3069 (  0.9605) /_ -122.0
------------
C90B_1  (  0)    0                0 (       0) /_    0.0

ELEMENT = "Capacitor.C92C"
92      (210)    3           2.4155 (   1.006) /_  119.4
------------
C92C_1  (  0)    0                0 (       0) /_    0.0

ELEMENT = "Transformer.REG2A"
9       ( 25)    1           2.3898 (   0.995) /_    1.1
9       (  0)    0                0 (       0) /_    0.0
------------
9R      ( 29)    1           2.3898 (   0.995) /_    1.1
9R      (  0)    0                0 (       0) /_    0.0

ELEMENT = "Transformer.REG3A"
25      ( 50)    1           2.3872 (  0.9939) /_    1.9
25      (  0)    0                0 (       0) /_    0.0
------------
25R     ( 53)    1           2.3872 (  0.9939) /_    1.9
25R     (  0)    0                0 (       0) /_    0.0

ELEMENT = "Transformer.REG4A"
160     (266)    1           2.3765 (  0.9895) /_    1.9
160     (  0)    0                0 (       0) /_    0.0
------------
160R    (263)    1           2.3765 (  0.9895) /_    1.9
160R    (  0)    0                0 (       0) /_    0.0

ELEMENT = "Transformer.REG3C"
25      ( 52)    3           2.3936 (  0.9966) /_  119.2
25      (  0)    0                0 (       0) /_    0.0
------------
25R     ( 54)    3           2.3936 (  0.9966) /_  119.2
25R     (  0)    0                0 (       0) /_    0.0

ELEMENT = "Transformer.REG4B"
160     (267)    2            2.313 (   0.963) /_ -121.5
160     (  0)    0                0 (       0) /_    0.0
------------
160R    (264)    2            2.313 (   0.963) /_ -121.5
160R    (  0)    0                0 (       0) /_    0.0

ELEMENT = "Transformer.REG4C"
160     (268)    3           2.3933 (  0.9965) /_  119.0
160     (  0)    0                0 (       0) /_    0.0
------------
160R    (265)    3           2.3933 (  0.9965) /_  119.0
160R    (  0)    0                0 (       0) /_    0.0

ELEMENT = "Transformer.TRAFO0"
25      ( 52)    3           2.3936 (  0.9966) /_  119.2
25      (  0)    0                0 (       0) /_    0.0
------------
DG0     (287)    1          0.48019 (   1.733) /_  119.6
DG0     (  0)    0                0 (       0) /_    0.0

ELEMENT = "Transformer.TRAFO1"
110     (252)    1           2.3843 (  0.9927) /_    2.8
110     (  0)    0                0 (       0) /_    0.0
------------
DG1     (288)    1          0.48063 (   1.734) /_    3.8
DG1     (  0)    0                0 (       0) /_    0.0

ELEMENT = "Transformer.TRAFO2"
104     (242)    3           2.4003 (  0.9994) /_  119.4
104     (  0)    0                0 (       0) /_    0.0
------------
DG2     (289)    1          0.48126 (   1.737) /_  119.8
DG2     (  0)    0                0 (       0) /_    0.0

ELEMENT = "Transformer.TRAFO3"
14      ( 30)    1           2.3915 (  0.9957) /_    1.1
14      (  0)    0                0 (       0) /_    0.0
------------
DG3     (290)    1          0.47985 (   1.732) /_    1.4
DG3     (  0)    0                0 (       0) /_    0.0

ELEMENT = "Transformer.TRAFO4"
61      (136)    1           2.3774 (  0.9899) /_    1.9
61      (137)    2           2.3136 (  0.9633) /_ -121.4
61      (138)    3           2.3942 (  0.9968) /_  119.1
61      (  0)    0                0 (       0) /_    0.0
------------
DG4     (291)    1          0.47579 (   1.717) /_    2.1
DG4     (292)    2          0.46305 (   1.671) /_ -121.3
DG4     (293)    3          0.47913 (   1.729) /_  119.2
DG4     (  0)    0                0 (       0) /_    0.0

ELEMENT = "Transformer.TRAFO5"
25R     ( 53)    1           2.3872 (  0.9939) /_    1.9
25R     (  0)    0                0 (       0) /_    0.0
------------
DG5     (294)    1          0.47899 (   1.728) /_    2.2
DG5     (  0)    0                0 (       0) /_    0.0

ELEMENT = "Transformer.TRAFO6"
29      ( 64)    1           2.3896 (  0.9949) /_    2.0
29      (  0)    0                0 (       0) /_    0.0
------------
DG6     (295)    1             0.48 (   1.732) /_    2.5
DG6     (  0)    0                0 (       0) /_    0.0

ELEMENT = "Transformer.TRAFO7"
92      (210)    3           2.4155 (   1.006) /_  119.4
92      (  0)    0                0 (       0) /_    0.0
------------
DG7     (296)    1          0.48413 (   1.747) /_  119.7
DG7     (  0)    0                0 (       0) /_    0.0

ELEMENT = "Transformer.TRAFO8"
35      ( 74)    1           2.3763 (  0.9894) /_    1.6
35      ( 75)    2           2.3179 (  0.9651) /_ -121.3
35      (  0)    0                0 (       0) /_    0.0
------------
DG8     (297)    1          0.47516 (   1.715) /_    1.7
DG8     (298)    2          0.46348 (   1.672) /_ -121.2
DG8     (  0)    0                0 (       0) /_    0.0

ELEMENT = "Transformer.TRAFO9"
65      (148)    1           2.3739 (  0.9884) /_    2.0
65      (149)    2            2.308 (  0.9609) /_ -121.4
------------
DG9     (299)    1          0.82438 (  0.3432) /_   30.0
DG9     (  0)    0                0 (       0) /_    0.0

ELEMENT = "Transformer.TRAFO10"
78      (179)    1           2.3839 (  0.9925) /_    1.8
78      (180)    2            2.314 (  0.9635) /_ -121.7
78      (181)    3           2.4026 (       1) /_  119.0
78      (  0)    0                0 (       0) /_    0.0
------------
DG10    (300)    1          0.47688 (   1.721) /_    2.0
DG10    (301)    2          0.46293 (    1.67) /_ -121.6
DG10    (302)    3          0.48062 (   1.734) /_  119.1
DG10    (  0)    0                0 (       0) /_    0.0

ELEMENT = "Transformer.TRAFO11"
91      (207)    1           2.3815 (  0.9916) /_    1.9
91      (208)    2           2.3071 (  0.9606) /_ -121.9
91      (209)    3           2.4122 (   1.004) /_  119.3
91      (  0)    0                0 (       0) /_    0.0
------------
DG11    (303)    1          0.47675 (    1.72) /_    2.1
DG11    (304)    2          0.46191 (   1.667) /_ -121.7
DG11    (305)    3          0.48286 (   1.742) /_  119.5
DG11    (  0)    0                0 (       0) /_    0.0

ELEMENT = "Transformer.TRAFO12"
78      (179)    1           2.3839 (  0.9925) /_    1.8
78      (180)    2            2.314 (  0.9635) /_ -121.7
78      (181)    3           2.4026 (       1) /_  119.0
78      (  0)    0                0 (       0) /_    0.0
------------
DG12    (306)    1          0.47676 (    1.72) /_    1.9
DG12    (307)    2          0.46281 (    1.67) /_ -121.6
DG12    (308)    3           0.4805 (   1.734) /_  119.1
DG12    (  0)    0                0 (       0) /_    0.0

ELEMENT = "Transformer.TRAFO13"
33      ( 63)    1           2.3906 (  0.9953) /_    2.0
33      (  0)    0                0 (       0) /_    0.0
------------
DG13    (309)    1           0.4793 (    1.73) /_    2.1
DG13    (  0)    0                0 (       0) /_    0.0

ELEMENT = "Transformer.TRAFO14"
52      (113)    1           2.3873 (   0.994) /_    1.7
52      (  0)    0                0 (       0) /_    0.0
------------
DG14    (310)    1          0.47919 (   1.729) /_    2.0
DG14    (  0)    0                0 (       0) /_    0.0

ELEMENT = "Transformer.TRAFO15"
135     (257)    1           2.3809 (  0.9913) /_    1.6
135     (258)    2           2.3244 (  0.9678) /_ -121.2
135     (259)    3            2.391 (  0.9955) /_  119.2
135     (  0)    0                0 (       0) /_    0.0
------------
DG15    (311)    1          0.47609 (   1.718) /_    1.7
DG15    (312)    2           0.4648 (   1.677) /_ -121.1
DG15    (313)    3           0.4781 (   1.725) /_  119.3
DG15    (  0)    0                0 (       0) /_    0.0

ELEMENT = "Transformer.TRAFO16"
52      (113)    1           2.3873 (   0.994) /_    1.7
52      (  0)    0                0 (       0) /_    0.0
------------
DG16    (314)    1          0.47979 (   1.731) /_    2.2
DG16    (  0)    0                0 (       0) /_    0.0

ELEMENT = "Transformer.TRAFO17"
101     (234)    1           2.3739 (  0.9884) /_    2.1
101     (235)    2           2.3065 (  0.9603) /_ -121.6
101     (236)    3           2.3953 (  0.9973) /_  119.1
101     (  0)    0                0 (       0) /_    0.0
------------
DG17    (315)    1          0.47519 (   1.715) /_    2.3
DG17    (316)    2          0.46174 (   1.666) /_ -121.4
DG17    (317)    3          0.47946 (    1.73) /_  119.3
DG17    (  0)    0                0 (       0) /_    0.0

ELEMENT = "Transformer.TRAFO18"
94      (214)    1           2.3837 (  0.9925) /_    1.8
94      (  0)    0                0 (       0) /_    0.0
------------
DG18    (318)    1          0.47919 (   1.729) /_    2.3
DG18    (  0)    0                0 (       0) /_    0.0

ELEMENT = "Transformer.TRAFO19"
82      (191)    1           2.3933 (  0.9965) /_    1.8
82      (192)    2           2.3227 (  0.9671) /_ -121.8
82      (193)    3           2.4081 (   1.003) /_  118.8
82      (  0)    0                0 (       0) /_    0.0
------------
DG19    (319)    1          0.47871 (   1.727) /_    1.9
DG19    (320)    2          0.46462 (   1.677) /_ -121.7
DG19    (321)    3          0.48168 (   1.738) /_  118.9
DG19    (  0)    0                0 (       0) /_    0.0

= = = = = = = = = = = = = = = = = = =  = = = = = = = = = = =  = =

Power Conversion Elements

Bus    (node ref)  Phase    Magnitude, kV (pu)    Angle

ELEMENT = "Load.S1A"
1       ( 10)    1           2.3965 (  0.9978) /_    0.4
1       (  0)    0                0 (       0) /_    0.0

ELEMENT = "Load.S2B"
2       ( 13)    2           2.3811 (  0.9914) /_ -120.3
2       (  0)    0                0 (       0) /_    0.0

ELEMENT = "Load.S4C"
4       ( 18)    3           2.3919 (  0.9959) /_  119.7
4       (  0)    0                0 (       0) /_    0.0

ELEMENT = "Load.S5C"
5       ( 19)    3           2.3901 (  0.9951) /_  119.7
5       (  0)    0                0 (       0) /_    0.0

ELEMENT = "Load.S6C"
6       ( 20)    3           2.3885 (  0.9945) /_  119.7
6       (  0)    0                0 (       0) /_    0.0

ELEMENT = "Load.S7A"
7       ( 15)    1           2.3926 (  0.9962) /_    0.8
7       (  0)    0                0 (       0) /_    0.0

ELEMENT = "Load.S9A"
9       ( 25)    1           2.3898 (   0.995) /_    1.1
9       (  0)    0                0 (       0) /_    0.0

ELEMENT = "Load.S10A"
10      ( 36)    1           2.3908 (  0.9954) /_    1.1
10      (  0)    0                0 (       0) /_    0.0

ELEMENT = "Load.S11A"
11      ( 35)    1             2.39 (  0.9951) /_    1.1
11      (  0)    0                0 (       0) /_    0.0

ELEMENT = "Load.S12B"
12      ( 24)    2           2.3561 (   0.981) /_ -120.7
12      (  0)    0                0 (       0) /_    0.0

ELEMENT = "Load.S16C"
16      ( 38)    3           2.3879 (  0.9942) /_  119.2
16      (  0)    0                0 (       0) /_    0.0

ELEMENT = "Load.S17C"
17      ( 39)    3           2.3892 (  0.9948) /_  119.2
17      (  0)    0                0 (       0) /_    0.0

ELEMENT = "Load.S19A"
19      ( 40)    1           2.3777 (    0.99) /_    1.6
19      (  0)    0                0 (       0) /_    0.0

ELEMENT = "Load.S20A"
20      ( 44)    1           2.3757 (  0.9891) /_    1.6
20      (  0)    0                0 (       0) /_    0.0

ELEMENT = "Load.S22B"
22      ( 45)    2           2.3187 (  0.9654) /_ -121.2
22      (  0)    0                0 (       0) /_    0.0

ELEMENT = "Load.S24C"
24      ( 49)    3           2.3888 (  0.9946) /_  119.1
24      (  0)    0                0 (       0) /_    0.0

ELEMENT = "Load.S28A"
28      ( 57)    1           2.3878 (  0.9942) /_    2.0
28      (  0)    0                0 (       0) /_    0.0

ELEMENT = "Load.S29A"
29      ( 64)    1           2.3896 (  0.9949) /_    2.0
29      (  0)    0                0 (       0) /_    0.0

ELEMENT = "Load.S30C"
30      ( 69)    3           2.3926 (  0.9962) /_  119.1
30      (  0)    0                0 (       0) /_    0.0

ELEMENT = "Load.S31C"
31      ( 62)    3           2.3911 (  0.9956) /_  119.1
31      (  0)    0                0 (       0) /_    0.0

ELEMENT = "Load.S32C"
32      ( 73)    3           2.3902 (  0.9952) /_  119.1
32      (  0)    0                0 (       0) /_    0.0

ELEMENT = "Load.S33A"
33      ( 63)    1           2.3906 (  0.9953) /_    2.0
33      (  0)    0                0 (       0) /_    0.0

ELEMENT = "Load.S34C"
34      ( 31)    3           2.3912 (  0.9956) /_  119.3
34      (  0)    0                0 (       0) /_    0.0

ELEMENT = "Load.S35A"
35      ( 74)    1           2.3763 (  0.9894) /_    1.6
35      ( 75)    2           2.3179 (  0.9651) /_ -121.3

ELEMENT = "Load.S37A"
37      ( 82)    1           2.3723 (  0.9877) /_    1.6
37      (  0)    0                0 (       0) /_    0.0

ELEMENT = "Load.S38B"
38      ( 83)    2           2.3151 (  0.9639) /_ -121.3
38      (  0)    0                0 (       0) /_    0.0

ELEMENT = "Load.S39B"
39      ( 84)    2            2.314 (  0.9635) /_ -121.3
39      (  0)    0                0 (       0) /_    0.0

ELEMENT = "Load.S41C"
41      ( 85)    3           2.3877 (  0.9941) /_  119.1
41      (  0)    0                0 (       0) /_    0.0

ELEMENT = "Load.S42A"
42      ( 86)    1           2.3706 (   0.987) /_    1.7
42      (  0)    0                0 (       0) /_    0.0

ELEMENT = "Load.S43B"
43      ( 89)    2           2.3084 (  0.9611) /_ -121.4
43      (  0)    0                0 (       0) /_    0.0

ELEMENT = "Load.S45A"
45      ( 93)    1           2.3674 (  0.9857) /_    1.7
45      (  0)    0                0 (       0) /_    0.0

ELEMENT = "Load.S46A"
46      ( 97)    1           2.3664 (  0.9853) /_    1.7
46      (  0)    0                0 (       0) /_    0.0

ELEMENT = "Load.S47"
47      ( 94)    1            2.367 (  0.9855) /_    1.7
47      ( 95)    2           2.3062 (  0.9602) /_ -121.5
47      ( 96)    3           2.3858 (  0.9933) /_  119.0
47      (  0)    0                0 (       0) /_    0.0

ELEMENT = "Load.S48"
48      ( 98)    1           2.3664 (  0.9853) /_    1.7
48      ( 99)    2           2.3055 (  0.9599) /_ -121.5
48      (100)    3           2.3852 (  0.9931) /_  119.0
48      (  0)    0                0 (       0) /_    0.0

ELEMENT = "Load.S49A"
49      (101)    1           2.3671 (  0.9856) /_    1.8
49      (  0)    0                0 (       0) /_    0.0

ELEMENT = "Load.S49B"
49      (102)    2           2.3043 (  0.9594) /_ -121.5
49      (  0)    0                0 (       0) /_    0.0

ELEMENT = "Load.S49C"
49      (103)    3           2.3864 (  0.9936) /_  119.0
49      (  0)    0                0 (       0) /_    0.0

ELEMENT = "Load.S50C"
50      (106)    3            2.387 (  0.9938) /_  119.0
50      (  0)    0                0 (       0) /_    0.0

ELEMENT = "Load.S51A"
51      (107)    1           2.3682 (   0.986) /_    1.9
51      (  0)    0                0 (       0) /_    0.0

ELEMENT = "Load.S52A"
52      (113)    1           2.3873 (   0.994) /_    1.7
52      (  0)    0                0 (       0) /_    0.0

ELEMENT = "Load.S53A"
53      (116)    1           2.3849 (   0.993) /_    1.8
53      (  0)    0                0 (       0) /_    0.0

ELEMENT = "Load.S55A"
55      (122)    1           2.3832 (  0.9923) /_    1.8
55      (  0)    0                0 (       0) /_    0.0

ELEMENT = "Load.S56B"
56      (129)    2           2.3253 (  0.9681) /_ -121.2
56      (  0)    0                0 (       0) /_    0.0

ELEMENT = "Load.S58B"
58      (131)    2           2.3194 (  0.9657) /_ -121.3
58      (  0)    0                0 (       0) /_    0.0

ELEMENT = "Load.S59B"
59      (135)    2           2.3186 (  0.9654) /_ -121.3
59      (  0)    0                0 (       0) /_    0.0

ELEMENT = "Load.S60A"
60      (132)    1           2.3765 (  0.9895) /_    1.9
60      (  0)    0                0 (       0) /_    0.0

ELEMENT = "Load.S62C"
62      (141)    3           2.3883 (  0.9944) /_  119.0
62      (  0)    0                0 (       0) /_    0.0

ELEMENT = "Load.S63A"
63      (142)    1           2.3743 (  0.9886) /_    1.9
63      (  0)    0                0 (       0) /_    0.0

ELEMENT = "Load.S64B"
64      (146)    2            2.307 (  0.9605) /_ -121.4
64      (  0)    0                0 (       0) /_    0.0

ELEMENT = "Load.S65A"
65      (148)    1           2.3739 (  0.9884) /_    2.0
65      (149)    2            2.308 (  0.9609) /_ -121.4

ELEMENT = "Load.S65B"
65      (149)    2            2.308 (  0.9609) /_ -121.4
65      (150)    3           2.3734 (  0.9882) /_  119.0

ELEMENT = "Load.S65C"
65      (150)    3           2.3734 (  0.9882) /_  119.0
65      (148)    1           2.3739 (  0.9884) /_    2.0

ELEMENT = "Load.S66C"
66      (153)    3           2.3697 (  0.9866) /_  118.9
66      (  0)    0                0 (       0) /_    0.0

ELEMENT = "Load.S68A"
68      (155)    1           2.3716 (  0.9874) /_    1.9
68      (  0)    0                0 (       0) /_    0.0

ELEMENT = "Load.S69A"
69      (164)    1           2.3672 (  0.9856) /_    1.8
69      (  0)    0                0 (       0) /_    0.0

ELEMENT = "Load.S70A"
70      (165)    1            2.364 (  0.9843) /_    1.8
70      (  0)    0                0 (       0) /_    0.0

ELEMENT = "Load.S71A"
71      (166)    1           2.3623 (  0.9835) /_    1.8
71      (  0)    0                0 (       0) /_    0.0

ELEMENT = "Load.S73C"
73      (167)    3           2.3904 (  0.9953) /_  119.0
73      (  0)    0                0 (       0) /_    0.0

ELEMENT = "Load.S74C"
74      (171)    3           2.3859 (  0.9934) /_  118.9
74      (  0)    0                0 (       0) /_    0.0

ELEMENT = "Load.S75C"
75      (172)    3           2.3834 (  0.9923) /_  118.9
75      (  0)    0                0 (       0) /_    0.0

ELEMENT = "Load.S76A"
76      (168)    1           2.3794 (  0.9907) /_    1.8
76      (169)    2           2.3096 (  0.9616) /_ -121.7

ELEMENT = "Load.S76B"
76      (169)    2           2.3096 (  0.9616) /_ -121.7
76      (170)    3           2.3984 (  0.9986) /_  119.0

ELEMENT = "Load.S76C"
76      (170)    3           2.3984 (  0.9986) /_  119.0
76      (168)    1           2.3794 (  0.9907) /_    1.8

ELEMENT = "Load.S77B"
77      (174)    2           2.3129 (   0.963) /_ -121.7
77      (  0)    0                0 (       0) /_    0.0

ELEMENT = "Load.S79A"
79      (182)    1           2.3832 (  0.9922) /_    1.8
79      (  0)    0                0 (       0) /_    0.0

ELEMENT = "Load.S80B"
80      (186)    2           2.3178 (   0.965) /_ -121.8
80      (  0)    0                0 (       0) /_    0.0

ELEMENT = "Load.S82A"
82      (191)    1           2.3933 (  0.9965) /_    1.8
82      (  0)    0                0 (       0) /_    0.0

ELEMENT = "Load.S83C"
83      (197)    3           2.4102 (   1.003) /_  118.8
83      (  0)    0                0 (       0) /_    0.0

ELEMENT = "Load.S84C"
84      (194)    3           2.3995 (  0.9991) /_  118.8
84      (  0)    0                0 (       0) /_    0.0

ELEMENT = "Load.S85C"
85      (198)    3           2.3965 (  0.9978) /_  118.8
85      (  0)    0                0 (       0) /_    0.0

ELEMENT = "Load.S86B"
86      (177)    2           2.3078 (  0.9609) /_ -121.9
86      (  0)    0                0 (       0) /_    0.0

ELEMENT = "Load.S87B"
87      (200)    2           2.3071 (  0.9606) /_ -121.9
87      (  0)    0                0 (       0) /_    0.0

ELEMENT = "Load.S88A"
88      (202)    1           2.3809 (  0.9913) /_    1.8
88      (  0)    0                0 (       0) /_    0.0

ELEMENT = "Load.S90B"
90      (206)    2           2.3069 (  0.9605) /_ -122.0
90      (  0)    0                0 (       0) /_    0.0

ELEMENT = "Load.S92C"
92      (210)    3           2.4155 (   1.006) /_  119.4
92      (  0)    0                0 (       0) /_    0.0

ELEMENT = "Load.S94A"
94      (214)    1           2.3837 (  0.9925) /_    1.8
94      (  0)    0                0 (       0) /_    0.0

ELEMENT = "Load.S95B"
95      (216)    2           2.3054 (  0.9599) /_ -122.0
95      (  0)    0                0 (       0) /_    0.0

ELEMENT = "Load.S96B"
96      (218)    2           2.3048 (  0.9596) /_ -122.0
96      (  0)    0                0 (       0) /_    0.0

ELEMENT = "Load.S98A"
98      (219)    1           2.3739 (  0.9884) /_    2.0
98      (  0)    0                0 (       0) /_    0.0

ELEMENT = "Load.S99B"
99      (223)    2           2.3054 (  0.9599) /_ -121.6
99      (  0)    0                0 (       0) /_    0.0

ELEMENT = "Load.S100C"
100     (227)    3           2.3925 (  0.9962) /_  119.0
100     (  0)    0                0 (       0) /_    0.0

ELEMENT = "Load.S102C"
102     (237)    3           2.3949 (  0.9971) /_  119.1
102     (  0)    0                0 (       0) /_    0.0

ELEMENT = "Load.S103C"
103     (241)    3           2.3952 (  0.9973) /_  119.2
103     (  0)    0                0 (       0) /_    0.0

ELEMENT = "Load.S104C"
104     (242)    3           2.4003 (  0.9994) /_  119.4
104     (  0)    0                0 (       0) /_    0.0

ELEMENT = "Load.S106B"
106     (243)    2           2.3004 (  0.9578) /_ -121.7
106     (  0)    0                0 (       0) /_    0.0

ELEMENT = "Load.S107B"
107     (247)    2           2.2966 (  0.9562) /_ -121.7
107     (  0)    0                0 (       0) /_    0.0

ELEMENT = "Load.S109A"
109     (248)    1           2.3785 (  0.9903) /_    2.5
109     (  0)    0                0 (       0) /_    0.0

ELEMENT = "Load.S111A"
111     (253)    1           2.3825 (   0.992) /_    2.7
111     (  0)    0                0 (       0) /_    0.0

ELEMENT = "Load.S112A"
112     (254)    1           2.3827 (  0.9921) /_    2.7
112     (  0)    0                0 (       0) /_    0.0

ELEMENT = "Load.S113A"
113     (255)    1           2.3778 (    0.99) /_    2.7
113     (  0)    0                0 (       0) /_    0.0

ELEMENT = "Load.S114A"
114     (256)    1           2.3767 (  0.9896) /_    2.7
114     (  0)    0                0 (       0) /_    0.0

ELEMENT = "Generator.DG0"
...